/*--------------------------------*- C++ -*----------------------------------*\ 
| ==========                  |                                                 | 
| \\      /  F ield         | OpenFOAM: The Open Source CFD Toolbox           | 
|  \\    /   O peration     | Version:  2.1.0                                 | 
|   \\  /    A nd           | Web:      www.OpenFOAM.com                      | 
|    \\/     M anipulation  |                                                 | 
\*---------------------------------------------------------------------------*/ 
FoamFile                                                                        
{                                                                               
    version     2.0;                                                            
    format      ascii;                                                          
    class       dictionary;                                                     
    object      blockMeshDict;                                                  
}                                                                               
// * * * * * * * * * * * * * * * * * * * * * * * * * * * * * * * * * * * * * // 

convertToMeters 1.000000; 

vertices 
( 
      (-7.004022 0.500000 0.000000)
      (0.277968 0.500000 8.000000)
      (1.000000 0.500000 8.000000)
      (16.000000 0.500000 8.000000)
      (0.000000 0.500000 0.000000)
      (0.277968 0.500000 0.059898)
      (0.277968 0.500000 -0.059898)
      (1.000000 0.500000 0.000000)
      (16.000000 0.500000 0.000000)
      (0.277968 0.500000 -8.000000)
      (1.000000 0.500000 -8.000000)
      (16.000000 0.500000 -8.000000)
      (-7.004022 -0.500000 0.000000)
      (0.277968 -0.500000 8.000000)
      (1.000000 -0.500000 8.000000)
      (16.000000 -0.500000 8.000000)
      (0.000000 -0.500000 0.000000)
      (0.277968 -0.500000 0.059898)
      (0.277968 -0.500000 -0.059898)
      (1.000000 -0.500000 0.000000)
      (16.000000 -0.500000 0.000000)
      (0.277968 -0.500000 -8.000000)
      (1.000000 -0.500000 -8.000000)
      (16.000000 -0.500000 -8.000000)
); 

blocks 
( 
    hex (4 5 1 0 16 17 13 12)     (40 80 1) edgeGrading (0.05 0.200000 0.200000 0.05 5.000000 5.000000 5.000000 5.000000 1 1 1 1) 
    hex (5 7 2 1 17 19 14 13)     (70 80 1) simpleGrading (1 5.000000 1) 
    hex (7 8 3 2 19 20 15 14)     (100 80 1) simpleGrading (15.000000 5.000000 1) 
    hex (16 18 21 12 4 6 9 0)     (40 80 1) edgeGrading (0.05 0.200000 0.200000 0.05 5.000000 5.000000 5.000000 5.000000 1 1 1 1) 
    hex (18 19 22 21 6 7 10 9)    (70 80 1) simpleGrading (1 5.000000 1) 
    hex (19 20 23 22 7 8 11 10)   (100 80 1) simpleGrading (15.000000 5.000000 1) 
); 

edges 
( 
    spline 4 5 
        ( 
      (0.000252 0.500000 0.002807)
      (0.001007 0.500000 0.005576)
      (0.002264 0.500000 0.008304)
      (0.004023 0.500000 0.010991)
      (0.006281 0.500000 0.013635)
      (0.009036 0.500000 0.016233)
      (0.012285 0.500000 0.018784)
      (0.016026 0.500000 0.021286)
      (0.020254 0.500000 0.023736)
      (0.024965 0.500000 0.026130)
      (0.030154 0.500000 0.028467)
      (0.035816 0.500000 0.030743)
      (0.041946 0.500000 0.032954)
      (0.048537 0.500000 0.035099)
      (0.055583 0.500000 0.037173)
      (0.063076 0.500000 0.039174)
      (0.071009 0.500000 0.041097)
      (0.079374 0.500000 0.042941)
      (0.088162 0.500000 0.044702)
      (0.097365 0.500000 0.046377)
      (0.106974 0.500000 0.047963)
      (0.116978 0.500000 0.049459)
      (0.127368 0.500000 0.050861)
      (0.138134 0.500000 0.052167)
      (0.149263 0.500000 0.053376)
      (0.160746 0.500000 0.054485)
      (0.172570 0.500000 0.055495)
      (0.184724 0.500000 0.056403)
      (0.197196 0.500000 0.057209)
      (0.209972 0.500000 0.057912)
      (0.223041 0.500000 0.058513)
      (0.236388 0.500000 0.059011)
      (0.250001 0.500000 0.059408)
      (0.263866 0.500000 0.059703)
       ) 
    spline 5 7 
        ( 
     (0.292294 0.500000 0.059995)
     (0.306829 0.500000 0.059995)
     (0.321558 0.500000 0.059900)
     (0.336467 0.500000 0.059713)
     (0.351541 0.500000 0.059435)
     (0.366765 0.500000 0.059070)
     (0.382122 0.500000 0.058619)
     (0.397598 0.500000 0.058087)
     (0.413177 0.500000 0.057476)
     (0.428844 0.500000 0.056790)
     (0.444583 0.500000 0.056032)
     (0.460377 0.500000 0.055205)
     (0.476211 0.500000 0.054313)
     (0.492069 0.500000 0.053360)
     (0.507935 0.500000 0.052349)
     (0.523793 0.500000 0.051283)
     (0.539627 0.500000 0.050167)
     (0.555421 0.500000 0.049004)
     (0.571159 0.500000 0.047798)
     (0.586826 0.500000 0.046552)
     (0.602405 0.500000 0.045270)
     (0.617881 0.500000 0.043955)
     (0.633239 0.500000 0.042610)
     (0.648462 0.500000 0.041240)
     (0.663536 0.500000 0.039848)
     (0.678445 0.500000 0.038436)
     (0.693175 0.500000 0.037009)
     (0.707710 0.500000 0.035569)
     (0.722035 0.500000 0.034119)
     (0.736138 0.500000 0.032663)
     (0.750002 0.500000 0.031204)
     (0.763615 0.500000 0.029745)
     (0.776962 0.500000 0.028288)
     (0.790031 0.500000 0.026838)
     (0.802807 0.500000 0.025396)
     (0.815278 0.500000 0.023967)
     (0.827432 0.500000 0.022552)
     (0.839257 0.500000 0.021155)
     (0.850739 0.500000 0.019779)
     (0.861869 0.500000 0.018426)
     (0.872634 0.500000 0.017100)
     (0.883024 0.500000 0.015804)
     (0.893028 0.500000 0.014540)
     (0.902637 0.500000 0.013312)
     (0.911840 0.500000 0.012122)
     (0.920628 0.500000 0.010972)
     (0.928993 0.500000 0.009867)
     (0.936926 0.500000 0.008808)
     (0.944419 0.500000 0.007798)
     (0.951465 0.500000 0.006839)
     (0.958055 0.500000 0.005935)
     (0.964185 0.500000 0.005088)
     (0.969847 0.500000 0.004299)
     (0.975037 0.500000 0.003571)
     (0.979747 0.500000 0.002906)
     (0.983975 0.500000 0.002305)
     (0.987716 0.500000 0.001771)
     (0.990965 0.500000 0.001306)
     (0.993720 0.500000 0.000909)
     (0.995978 0.500000 0.000583)
     (0.997736 0.500000 0.000329)
     (0.998994 0.500000 0.000146)
     (0.999748 0.500000 0.000037)
        ) 
    spline 4 6 
        ( 
      (0.000252 0.500000 -0.002807)
      (0.001007 0.500000 -0.005576)
      (0.002264 0.500000 -0.008304)
      (0.004023 0.500000 -0.010991)
      (0.006281 0.500000 -0.013635)
      (0.009036 0.500000 -0.016233)
      (0.012285 0.500000 -0.018784)
      (0.016026 0.500000 -0.021286)
      (0.020254 0.500000 -0.023736)
      (0.024965 0.500000 -0.026130)
      (0.030154 0.500000 -0.028467)
      (0.035816 0.500000 -0.030743)
      (0.041946 0.500000 -0.032954)
      (0.048537 0.500000 -0.035099)
      (0.055583 0.500000 -0.037173)
      (0.063076 0.500000 -0.039174)
      (0.071009 0.500000 -0.041097)
      (0.079374 0.500000 -0.042941)
      (0.088162 0.500000 -0.044702)
      (0.097365 0.500000 -0.046377)
      (0.106974 0.500000 -0.047963)
      (0.116978 0.500000 -0.049459)
      (0.127368 0.500000 -0.050861)
      (0.138134 0.500000 -0.052167)
      (0.149263 0.500000 -0.053376)
      (0.160746 0.500000 -0.054485)
      (0.172570 0.500000 -0.055495)
      (0.184724 0.500000 -0.056403)
      (0.197196 0.500000 -0.057209)
      (0.209972 0.500000 -0.057912)
      (0.223041 0.500000 -0.058513)
      (0.236388 0.500000 -0.059011)
      (0.250001 0.500000 -0.059408)
      (0.263866 0.500000 -0.059703)
        ) 
    spline 6 7 
        ( 
      (0.292294 0.500000 -0.059995)
      (0.306829 0.500000 -0.059995)
      (0.321558 0.500000 -0.059900)
      (0.336467 0.500000 -0.059713)
      (0.351541 0.500000 -0.059435)
      (0.366765 0.500000 -0.059070)
      (0.382122 0.500000 -0.058619)
      (0.397598 0.500000 -0.058087)
      (0.413177 0.500000 -0.057476)
      (0.428844 0.500000 -0.056790)
      (0.444583 0.500000 -0.056032)
      (0.460377 0.500000 -0.055205)
      (0.476211 0.500000 -0.054313)
      (0.492069 0.500000 -0.053360)
      (0.507935 0.500000 -0.052349)
      (0.523793 0.500000 -0.051283)
      (0.539627 0.500000 -0.050167)
      (0.555421 0.500000 -0.049004)
      (0.571159 0.500000 -0.047798)
      (0.586826 0.500000 -0.046552)
      (0.602405 0.500000 -0.045270)
      (0.617881 0.500000 -0.043955)
      (0.633239 0.500000 -0.042610)
      (0.648462 0.500000 -0.041240)
      (0.663536 0.500000 -0.039848)
      (0.678445 0.500000 -0.038436)
      (0.693175 0.500000 -0.037009)
      (0.707710 0.500000 -0.035569)
      (0.722035 0.500000 -0.034119)
      (0.736138 0.500000 -0.032663)
      (0.750002 0.500000 -0.031204)
      (0.763615 0.500000 -0.029745)
      (0.776962 0.500000 -0.028288)
      (0.790031 0.500000 -0.026838)
      (0.802807 0.500000 -0.025396)
      (0.815278 0.500000 -0.023967)
      (0.827432 0.500000 -0.022552)
      (0.839257 0.500000 -0.021155)
      (0.850739 0.500000 -0.019779)
      (0.861869 0.500000 -0.018426)
      (0.872634 0.500000 -0.017100)
      (0.883024 0.500000 -0.015804)
      (0.893028 0.500000 -0.014540)
      (0.902637 0.500000 -0.013312)
      (0.911840 0.500000 -0.012122)
      (0.920628 0.500000 -0.010972)
      (0.928993 0.500000 -0.009867)
      (0.936926 0.500000 -0.008808)
      (0.944419 0.500000 -0.007798)
      (0.951465 0.500000 -0.006839)
      (0.958055 0.500000 -0.005935)
      (0.964185 0.500000 -0.005088)
      (0.969847 0.500000 -0.004299)
      (0.975037 0.500000 -0.003571)
      (0.979747 0.500000 -0.002906)
      (0.983975 0.500000 -0.002305)
      (0.987716 0.500000 -0.001771)
      (0.990965 0.500000 -0.001306)
      (0.993720 0.500000 -0.000909)
      (0.995978 0.500000 -0.000583)
      (0.997736 0.500000 -0.000329)
      (0.998994 0.500000 -0.000146)
      (0.999748 0.500000 -0.000037)
        ) 
    spline 16 17 
        ( 
      (0.000252 -0.500000 0.002807)
      (0.001007 -0.500000 0.005576)
      (0.002264 -0.500000 0.008304)
      (0.004023 -0.500000 0.010991)
      (0.006281 -0.500000 0.013635)
      (0.009036 -0.500000 0.016233)
      (0.012285 -0.500000 0.018784)
      (0.016026 -0.500000 0.021286)
      (0.020254 -0.500000 0.023736)
      (0.024965 -0.500000 0.026130)
      (0.030154 -0.500000 0.028467)
      (0.035816 -0.500000 0.030743)
      (0.041946 -0.500000 0.032954)
      (0.048537 -0.500000 0.035099)
      (0.055583 -0.500000 0.037173)
      (0.063076 -0.500000 0.039174)
      (0.071009 -0.500000 0.041097)
      (0.079374 -0.500000 0.042941)
      (0.088162 -0.500000 0.044702)
      (0.097365 -0.500000 0.046377)
      (0.106974 -0.500000 0.047963)
      (0.116978 -0.500000 0.049459)
      (0.127368 -0.500000 0.050861)
      (0.138134 -0.500000 0.052167)
      (0.149263 -0.500000 0.053376)
      (0.160746 -0.500000 0.054485)
      (0.172570 -0.500000 0.055495)
      (0.184724 -0.500000 0.056403)
      (0.197196 -0.500000 0.057209)
      (0.209972 -0.500000 0.057912)
      (0.223041 -0.500000 0.058513)
      (0.236388 -0.500000 0.059011)
      (0.250001 -0.500000 0.059408)
      (0.263866 -0.500000 0.059703)
        ) 
    spline 17 19 
        ( 
     (0.292294 -0.500000 0.059995)
     (0.306829 -0.500000 0.059995)
     (0.321558 -0.500000 0.059900)
     (0.336467 -0.500000 0.059713)
     (0.351541 -0.500000 0.059435)
     (0.366765 -0.500000 0.059070)
     (0.382122 -0.500000 0.058619)
     (0.397598 -0.500000 0.058087)
     (0.413177 -0.500000 0.057476)
     (0.428844 -0.500000 0.056790)
     (0.444583 -0.500000 0.056032)
     (0.460377 -0.500000 0.055205)
     (0.476211 -0.500000 0.054313)
     (0.492069 -0.500000 0.053360)
     (0.507935 -0.500000 0.052349)
     (0.523793 -0.500000 0.051283)
     (0.539627 -0.500000 0.050167)
     (0.555421 -0.500000 0.049004)
     (0.571159 -0.500000 0.047798)
     (0.586826 -0.500000 0.046552)
     (0.602405 -0.500000 0.045270)
     (0.617881 -0.500000 0.043955)
     (0.633239 -0.500000 0.042610)
     (0.648462 -0.500000 0.041240)
     (0.663536 -0.500000 0.039848)
     (0.678445 -0.500000 0.038436)
     (0.693175 -0.500000 0.037009)
     (0.707710 -0.500000 0.035569)
     (0.722035 -0.500000 0.034119)
     (0.736138 -0.500000 0.032663)
     (0.750002 -0.500000 0.031204)
     (0.763615 -0.500000 0.029745)
     (0.776962 -0.500000 0.028288)
     (0.790031 -0.500000 0.026838)
     (0.802807 -0.500000 0.025396)
     (0.815278 -0.500000 0.023967)
     (0.827432 -0.500000 0.022552)
     (0.839257 -0.500000 0.021155)
     (0.850739 -0.500000 0.019779)
     (0.861869 -0.500000 0.018426)
     (0.872634 -0.500000 0.017100)
     (0.883024 -0.500000 0.015804)
     (0.893028 -0.500000 0.014540)
     (0.902637 -0.500000 0.013312)
     (0.911840 -0.500000 0.012122)
     (0.920628 -0.500000 0.010972)
     (0.928993 -0.500000 0.009867)
     (0.936926 -0.500000 0.008808)
     (0.944419 -0.500000 0.007798)
     (0.951465 -0.500000 0.006839)
     (0.958055 -0.500000 0.005935)
     (0.964185 -0.500000 0.005088)
     (0.969847 -0.500000 0.004299)
     (0.975037 -0.500000 0.003571)
     (0.979747 -0.500000 0.002906)
     (0.983975 -0.500000 0.002305)
     (0.987716 -0.500000 0.001771)
     (0.990965 -0.500000 0.001306)
     (0.993720 -0.500000 0.000909)
     (0.995978 -0.500000 0.000583)
     (0.997736 -0.500000 0.000329)
     (0.998994 -0.500000 0.000146)
     (0.999748 -0.500000 0.000037)
        ) 
    spline 16 18 
        ( 
      (0.000252 -0.500000 -0.002807)
      (0.001007 -0.500000 -0.005576)
      (0.002264 -0.500000 -0.008304)
      (0.004023 -0.500000 -0.010991)
      (0.006281 -0.500000 -0.013635)
      (0.009036 -0.500000 -0.016233)
      (0.012285 -0.500000 -0.018784)
      (0.016026 -0.500000 -0.021286)
      (0.020254 -0.500000 -0.023736)
      (0.024965 -0.500000 -0.026130)
      (0.030154 -0.500000 -0.028467)
      (0.035816 -0.500000 -0.030743)
      (0.041946 -0.500000 -0.032954)
      (0.048537 -0.500000 -0.035099)
      (0.055583 -0.500000 -0.037173)
      (0.063076 -0.500000 -0.039174)
      (0.071009 -0.500000 -0.041097)
      (0.079374 -0.500000 -0.042941)
      (0.088162 -0.500000 -0.044702)
      (0.097365 -0.500000 -0.046377)
      (0.106974 -0.500000 -0.047963)
      (0.116978 -0.500000 -0.049459)
      (0.127368 -0.500000 -0.050861)
      (0.138134 -0.500000 -0.052167)
      (0.149263 -0.500000 -0.053376)
      (0.160746 -0.500000 -0.054485)
      (0.172570 -0.500000 -0.055495)
      (0.184724 -0.500000 -0.056403)
      (0.197196 -0.500000 -0.057209)
      (0.209972 -0.500000 -0.057912)
      (0.223041 -0.500000 -0.058513)
      (0.236388 -0.500000 -0.059011)
      (0.250001 -0.500000 -0.059408)
      (0.263866 -0.500000 -0.059703)
        ) 
    spline 18 19 
        ( 
      (0.292294 -0.500000 -0.059995)
      (0.306829 -0.500000 -0.059995)
      (0.321558 -0.500000 -0.059900)
      (0.336467 -0.500000 -0.059713)
      (0.351541 -0.500000 -0.059435)
      (0.366765 -0.500000 -0.059070)
      (0.382122 -0.500000 -0.058619)
      (0.397598 -0.500000 -0.058087)
      (0.413177 -0.500000 -0.057476)
      (0.428844 -0.500000 -0.056790)
      (0.444583 -0.500000 -0.056032)
      (0.460377 -0.500000 -0.055205)
      (0.476211 -0.500000 -0.054313)
      (0.492069 -0.500000 -0.053360)
      (0.507935 -0.500000 -0.052349)
      (0.523793 -0.500000 -0.051283)
      (0.539627 -0.500000 -0.050167)
      (0.555421 -0.500000 -0.049004)
      (0.571159 -0.500000 -0.047798)
      (0.586826 -0.500000 -0.046552)
      (0.602405 -0.500000 -0.045270)
      (0.617881 -0.500000 -0.043955)
      (0.633239 -0.500000 -0.042610)
      (0.648462 -0.500000 -0.041240)
      (0.663536 -0.500000 -0.039848)
      (0.678445 -0.500000 -0.038436)
      (0.693175 -0.500000 -0.037009)
      (0.707710 -0.500000 -0.035569)
      (0.722035 -0.500000 -0.034119)
      (0.736138 -0.500000 -0.032663)
      (0.750002 -0.500000 -0.031204)
      (0.763615 -0.500000 -0.029745)
      (0.776962 -0.500000 -0.028288)
      (0.790031 -0.500000 -0.026838)
      (0.802807 -0.500000 -0.025396)
      (0.815278 -0.500000 -0.023967)
      (0.827432 -0.500000 -0.022552)
      (0.839257 -0.500000 -0.021155)
      (0.850739 -0.500000 -0.019779)
      (0.861869 -0.500000 -0.018426)
      (0.872634 -0.500000 -0.017100)
      (0.883024 -0.500000 -0.015804)
      (0.893028 -0.500000 -0.014540)
      (0.902637 -0.500000 -0.013312)
      (0.911840 -0.500000 -0.012122)
      (0.920628 -0.500000 -0.010972)
      (0.928993 -0.500000 -0.009867)
      (0.936926 -0.500000 -0.008808)
      (0.944419 -0.500000 -0.007798)
      (0.951465 -0.500000 -0.006839)
      (0.958055 -0.500000 -0.005935)
      (0.964185 -0.500000 -0.005088)
      (0.969847 -0.500000 -0.004299)
      (0.975037 -0.500000 -0.003571)
      (0.979747 -0.500000 -0.002906)
      (0.983975 -0.500000 -0.002305)
      (0.987716 -0.500000 -0.001771)
      (0.990965 -0.500000 -0.001306)
      (0.993720 -0.500000 -0.000909)
      (0.995978 -0.500000 -0.000583)
      (0.997736 -0.500000 -0.000329)
      (0.998994 -0.500000 -0.000146)
      (0.999748 -0.500000 -0.000037)
        ) 
    arc 0 1 (-5.378876 0.500000 5.656864) 
    arc 0 9 (-5.378876 0.500000 -5.656864) 
    arc 12 13 (-5.378876 -0.500000 5.656864) 
    arc 12 21 (-5.378876 -0.500000 -5.656864) 
); 

boundary 
( 
    inlet 
    { 
        type patch; 
        faces 
        ( 
            (1 0 12 13) 
            (0 9 21 12) 
        ); 
    } 

    outlet 
    { 
        type patch; 
        faces 
        ( 
            (11 8 20 23) 
            (8 3 15 20) 
        ); 
    } 

    topAndBottom 
    { 
        type patch; 
        faces 
        ( 
            (3 2 14 15) 
            (2 1 13 14) 
            (9 10 22 21) 
            (10 11 23 22) 
        ); 
    } 

    naca4 
    { 
        type wall; 
        faces 
        ( 
            (5 4 16 17) 
            (7 5 17 19) 
            (4 6 18 16) 
            (6 7 19 18) 
        ); 
    } 
); 
 
mergePatchPairs 
( 
); 
 
// ************************************************************************* // 
