/*--------------------------------*- C++ -*----------------------------------*\ 
| =========                 |                                                 | 
| \\      /  F ield         | OpenFOAM: The Open Source CFD Toolbox           | 
|  \\    /   O peration     | Version:  2.1.0                                 | 
|   \\  /    A nd           | Web:      www.OpenFOAM.com                      | 
|    \\/     M anipulation  |                                                 | 
\*---------------------------------------------------------------------------*/ 
FoamFile                                                                        
{                                                                               
    version     2.0;                                                            
    format      ascii;                                                          
    class       dictionary;                                                     
    object      blockMeshDict;                                                  
}                                                                               
// * * * * * * * * * * * * * * * * * * * * * * * * * * * * * * * * * * * * * // 

convertToMeters 1.000000; 

vertices 
( 
      (-7.921884 0.500000 0.000000)
      (0.078116 0.500000 8.000000)
      (1.000000 0.500000 8.000000)
      (16.000000 0.500000 8.000000)
      (0.000000 0.500000 0.000000)
      (0.078116 0.500000 0.066068)
      (0.098208 0.500000 -0.021049)
      (1.000000 0.500000 0.000000)
      (16.000000 0.500000 0.000000)
      (0.098208 0.500000 -8.000000)
      (1.000000 0.500000 -8.000000)
      (16.000000 0.500000 -8.000000)
      (-7.921884 -0.500000 0.000000)
      (0.078116 -0.500000 8.000000)
      (1.000000 -0.500000 8.000000)
      (16.000000 -0.500000 8.000000)
      (0.000000 -0.500000 0.000000)
      (0.078116 -0.500000 0.066068)
      (0.098208 -0.500000 -0.021049)
      (1.000000 -0.500000 0.000000)
      (16.000000 -0.500000 0.000000)
      (0.098208 -0.500000 -8.000000)
      (1.000000 -0.500000 -8.000000)
      (16.000000 -0.500000 -8.000000)
); 

blocks 
( 
    hex (4 5 1 0 16 17 13 12)     (45 200 1) edgeGrading (1 0.200000 0.200000 1 5.000000 5.000000 5.000000 5.000000 1 1 1 1) 
    hex (5 7 2 1 17 19 14 13)     (105 200 1) simpleGrading (1 5.000000 1) 
    hex (7 8 3 2 19 20 15 14)     (30 200 1) simpleGrading (15.000000 5.000000 1) 
    hex (16 18 21 12 4 6 9 0)     (45 200 1) edgeGrading (1 0.200000 0.200000 1 5.000000 5.000000 5.000000 5.000000 1 1 1 1) 
    hex (18 19 22 21 6 7 10 9)    (105 200 1) simpleGrading (1 5.000000 1) 
    hex (19 20 23 22 7 8 11 10)   (30 200 1) simpleGrading (15.000000 5.000000 1) 
); 

edges 
( 
    spline 4 5 
        ( 
      (-0.000505 0.500000 0.002774)
      (-0.000494 0.500000 0.005652)
      (0.000034 0.500000 0.008632)
      (0.001081 0.500000 0.011712)
      (0.002647 0.500000 0.014889)
      (0.004732 0.500000 0.018159)
      (0.007336 0.500000 0.021518)
      (0.010457 0.500000 0.024960)
      (0.014095 0.500000 0.028479)
      (0.018247 0.500000 0.032068)
      (0.022910 0.500000 0.035718)
      (0.028082 0.500000 0.039423)
      (0.033758 0.500000 0.043173)
      (0.039934 0.500000 0.046959)
      (0.046605 0.500000 0.050771)
      (0.053765 0.500000 0.054598)
      (0.061409 0.500000 0.058431)
      (0.069528 0.500000 0.062258)
       ) 
    spline 5 7 
        ( 
     (0.087165 0.500000 0.069849)
     (0.096664 0.500000 0.073591)
     (0.106606 0.500000 0.077281)
     (0.116979 0.500000 0.080909)
     (0.127773 0.500000 0.084462)
     (0.138976 0.500000 0.087930)
     (0.150577 0.500000 0.091302)
     (0.162562 0.500000 0.094566)
     (0.174918 0.500000 0.097712)
     (0.187632 0.500000 0.100730)
     (0.200688 0.500000 0.103611)
     (0.214073 0.500000 0.106344)
     (0.227770 0.500000 0.108921)
     (0.241764 0.500000 0.111334)
     (0.256039 0.500000 0.113575)
     (0.270577 0.500000 0.115637)
     (0.285362 0.500000 0.117514)
     (0.300376 0.500000 0.119199)
     (0.315602 0.500000 0.120688)
     (0.331022 0.500000 0.121976)
     (0.346617 0.500000 0.123059)
     (0.362369 0.500000 0.123935)
     (0.378261 0.500000 0.124601)
     (0.394273 0.500000 0.125056)
     (0.410386 0.500000 0.125298)
     (0.426583 0.500000 0.125328)
     (0.442845 0.500000 0.125145)
     (0.459152 0.500000 0.124752)
     (0.475487 0.500000 0.124150)
     (0.491832 0.500000 0.123342)
     (0.508167 0.500000 0.122331)
     (0.524476 0.500000 0.121120)
     (0.540740 0.500000 0.119715)
     (0.556941 0.500000 0.118121)
     (0.573063 0.500000 0.116342)
     (0.589087 0.500000 0.114386)
     (0.604997 0.500000 0.112259)
     (0.620777 0.500000 0.109968)
     (0.636409 0.500000 0.107522)
     (0.651879 0.500000 0.104927)
     (0.667170 0.500000 0.102194)
     (0.682267 0.500000 0.099330)
     (0.697155 0.500000 0.096346)
     (0.711819 0.500000 0.093250)
     (0.726245 0.500000 0.090055)
     (0.740420 0.500000 0.086768)
     (0.754329 0.500000 0.083402)
     (0.767959 0.500000 0.079968)
     (0.781298 0.500000 0.076476)
     (0.794333 0.500000 0.072938)
     (0.807053 0.500000 0.069365)
     (0.819445 0.500000 0.065770)
     (0.831500 0.500000 0.062163)
     (0.843205 0.500000 0.058557)
     (0.854551 0.500000 0.054963)
     (0.865529 0.500000 0.051393)
     (0.876127 0.500000 0.047860)
     (0.886339 0.500000 0.044375)
     (0.896154 0.500000 0.040949)
     (0.905565 0.500000 0.037593)
     (0.914564 0.500000 0.034320)
     (0.923144 0.500000 0.031140)
     (0.931298 0.500000 0.028064)
     (0.939019 0.500000 0.025102)
     (0.946302 0.500000 0.022265)
     (0.953141 0.500000 0.019561)
     (0.959530 0.500000 0.017001)
     (0.965465 0.500000 0.014593)
     (0.970941 0.500000 0.012345)
     (0.975955 0.500000 0.010266)
     (0.980501 0.500000 0.008362)
     (0.984578 0.500000 0.006640)
     (0.988182 0.500000 0.005106)
     (0.991311 0.500000 0.003766)
     (0.993962 0.500000 0.002624)
     (0.996134 0.500000 0.001684)
     (0.997825 0.500000 0.000949)
     (0.999033 0.500000 0.000422)
     (0.999758 0.500000 0.000106)
        ) 
    spline 4 6 
        ( 
      (0.001008 0.500000 -0.002633)
      (0.002507 0.500000 -0.005088)
      (0.004494 0.500000 -0.007367)
      (0.006964 0.500000 -0.009468)
      (0.009914 0.500000 -0.011394)
      (0.013339 0.500000 -0.013145)
      (0.017234 0.500000 -0.014723)
      (0.021594 0.500000 -0.016130)
      (0.026412 0.500000 -0.017367)
      (0.031682 0.500000 -0.018436)
      (0.037397 0.500000 -0.019341)
      (0.043551 0.500000 -0.020085)
      (0.050134 0.500000 -0.020669)
      (0.057140 0.500000 -0.021098)
      (0.064560 0.500000 -0.021375)
      (0.072386 0.500000 -0.021504)
      (0.080608 0.500000 -0.021490)
      (0.089219 0.500000 -0.021337)
        ) 
    spline 6 7 
        ( 
      (0.107566 0.500000 -0.020633)
      (0.117284 0.500000 -0.020094)
      (0.127351 0.500000 -0.019436)
      (0.137758 0.500000 -0.018667)
      (0.148494 0.500000 -0.017793)
      (0.159550 0.500000 -0.016820)
      (0.170915 0.500000 -0.015754)
      (0.182579 0.500000 -0.014604)
      (0.194531 0.500000 -0.013375)
      (0.206760 0.500000 -0.012077)
      (0.219257 0.500000 -0.010716)
      (0.232009 0.500000 -0.009299)
      (0.245006 0.500000 -0.007836)
      (0.258238 0.500000 -0.006334)
      (0.271692 0.500000 -0.004800)
      (0.285359 0.500000 -0.003244)
      (0.299225 0.500000 -0.001673)
      (0.313281 0.500000 -0.000095)
      (0.327514 0.500000 0.001481)
      (0.341913 0.500000 0.003048)
      (0.356465 0.500000 0.004598)
      (0.371160 0.500000 0.006124)
      (0.385983 0.500000 0.007617)
      (0.400924 0.500000 0.009072)
      (0.415969 0.500000 0.010481)
      (0.431105 0.500000 0.011837)
      (0.446321 0.500000 0.013135)
      (0.461601 0.500000 0.014369)
      (0.476934 0.500000 0.015533)
      (0.492306 0.500000 0.016623)
      (0.507702 0.500000 0.017634)
      (0.523110 0.500000 0.018563)
      (0.538514 0.500000 0.019405)
      (0.553901 0.500000 0.020159)
      (0.569256 0.500000 0.020822)
      (0.584565 0.500000 0.021392)
      (0.599814 0.500000 0.021868)
      (0.614986 0.500000 0.022250)
      (0.630068 0.500000 0.022537)
      (0.645045 0.500000 0.022730)
      (0.659902 0.500000 0.022830)
      (0.674623 0.500000 0.022838)
      (0.689194 0.500000 0.022757)
      (0.703600 0.500000 0.022589)
      (0.717825 0.500000 0.022338)
      (0.731856 0.500000 0.022006)
      (0.745676 0.500000 0.021597)
      (0.759271 0.500000 0.021116)
      (0.772626 0.500000 0.020568)
      (0.785728 0.500000 0.019956)
      (0.798561 0.500000 0.019287)
      (0.811111 0.500000 0.018566)
      (0.823365 0.500000 0.017799)
      (0.835308 0.500000 0.016990)
      (0.846927 0.500000 0.016147)
      (0.858209 0.500000 0.015275)
      (0.869141 0.500000 0.014380)
      (0.879710 0.500000 0.013469)
      (0.889903 0.500000 0.012548)
      (0.899709 0.500000 0.011621)
      (0.909116 0.500000 0.010697)
      (0.918113 0.500000 0.009780)
      (0.926688 0.500000 0.008876)
      (0.934833 0.500000 0.007991)
      (0.942536 0.500000 0.007131)
      (0.949788 0.500000 0.006300)
      (0.956581 0.500000 0.005503)
      (0.962905 0.500000 0.004745)
      (0.968754 0.500000 0.004031)
      (0.974119 0.500000 0.003365)
      (0.978994 0.500000 0.002750)
      (0.983372 0.500000 0.002190)
      (0.987249 0.500000 0.001689)
      (0.990619 0.500000 0.001248)
      (0.993478 0.500000 0.000871)
      (0.995822 0.500000 0.000560)
      (0.997648 0.500000 0.000316)
      (0.998954 0.500000 0.000141)
      (0.999739 0.500000 0.000035)
        ) 
    spline 16 17 
        ( 
      (-0.000505 -0.500000 0.002774)
      (-0.000494 -0.500000 0.005652)
      (0.000034 -0.500000 0.008632)
      (0.001081 -0.500000 0.011712)
      (0.002647 -0.500000 0.014889)
      (0.004732 -0.500000 0.018159)
      (0.007336 -0.500000 0.021518)
      (0.010457 -0.500000 0.024960)
      (0.014095 -0.500000 0.028479)
      (0.018247 -0.500000 0.032068)
      (0.022910 -0.500000 0.035718)
      (0.028082 -0.500000 0.039423)
      (0.033758 -0.500000 0.043173)
      (0.039934 -0.500000 0.046959)
      (0.046605 -0.500000 0.050771)
      (0.053765 -0.500000 0.054598)
      (0.061409 -0.500000 0.058431)
      (0.069528 -0.500000 0.062258)
        ) 
    spline 17 19 
        ( 
     (0.087165 -0.500000 0.069849)
     (0.096664 -0.500000 0.073591)
     (0.106606 -0.500000 0.077281)
     (0.116979 -0.500000 0.080909)
     (0.127773 -0.500000 0.084462)
     (0.138976 -0.500000 0.087930)
     (0.150577 -0.500000 0.091302)
     (0.162562 -0.500000 0.094566)
     (0.174918 -0.500000 0.097712)
     (0.187632 -0.500000 0.100730)
     (0.200688 -0.500000 0.103611)
     (0.214073 -0.500000 0.106344)
     (0.227770 -0.500000 0.108921)
     (0.241764 -0.500000 0.111334)
     (0.256039 -0.500000 0.113575)
     (0.270577 -0.500000 0.115637)
     (0.285362 -0.500000 0.117514)
     (0.300376 -0.500000 0.119199)
     (0.315602 -0.500000 0.120688)
     (0.331022 -0.500000 0.121976)
     (0.346617 -0.500000 0.123059)
     (0.362369 -0.500000 0.123935)
     (0.378261 -0.500000 0.124601)
     (0.394273 -0.500000 0.125056)
     (0.410386 -0.500000 0.125298)
     (0.426583 -0.500000 0.125328)
     (0.442845 -0.500000 0.125145)
     (0.459152 -0.500000 0.124752)
     (0.475487 -0.500000 0.124150)
     (0.491832 -0.500000 0.123342)
     (0.508167 -0.500000 0.122331)
     (0.524476 -0.500000 0.121120)
     (0.540740 -0.500000 0.119715)
     (0.556941 -0.500000 0.118121)
     (0.573063 -0.500000 0.116342)
     (0.589087 -0.500000 0.114386)
     (0.604997 -0.500000 0.112259)
     (0.620777 -0.500000 0.109968)
     (0.636409 -0.500000 0.107522)
     (0.651879 -0.500000 0.104927)
     (0.667170 -0.500000 0.102194)
     (0.682267 -0.500000 0.099330)
     (0.697155 -0.500000 0.096346)
     (0.711819 -0.500000 0.093250)
     (0.726245 -0.500000 0.090055)
     (0.740420 -0.500000 0.086768)
     (0.754329 -0.500000 0.083402)
     (0.767959 -0.500000 0.079968)
     (0.781298 -0.500000 0.076476)
     (0.794333 -0.500000 0.072938)
     (0.807053 -0.500000 0.069365)
     (0.819445 -0.500000 0.065770)
     (0.831500 -0.500000 0.062163)
     (0.843205 -0.500000 0.058557)
     (0.854551 -0.500000 0.054963)
     (0.865529 -0.500000 0.051393)
     (0.876127 -0.500000 0.047860)
     (0.886339 -0.500000 0.044375)
     (0.896154 -0.500000 0.040949)
     (0.905565 -0.500000 0.037593)
     (0.914564 -0.500000 0.034320)
     (0.923144 -0.500000 0.031140)
     (0.931298 -0.500000 0.028064)
     (0.939019 -0.500000 0.025102)
     (0.946302 -0.500000 0.022265)
     (0.953141 -0.500000 0.019561)
     (0.959530 -0.500000 0.017001)
     (0.965465 -0.500000 0.014593)
     (0.970941 -0.500000 0.012345)
     (0.975955 -0.500000 0.010266)
     (0.980501 -0.500000 0.008362)
     (0.984578 -0.500000 0.006640)
     (0.988182 -0.500000 0.005106)
     (0.991311 -0.500000 0.003766)
     (0.993962 -0.500000 0.002624)
     (0.996134 -0.500000 0.001684)
     (0.997825 -0.500000 0.000949)
     (0.999033 -0.500000 0.000422)
     (0.999758 -0.500000 0.000106)
        ) 
    spline 16 18 
        ( 
      (0.001008 -0.500000 -0.002633)
      (0.002507 -0.500000 -0.005088)
      (0.004494 -0.500000 -0.007367)
      (0.006964 -0.500000 -0.009468)
      (0.009914 -0.500000 -0.011394)
      (0.013339 -0.500000 -0.013145)
      (0.017234 -0.500000 -0.014723)
      (0.021594 -0.500000 -0.016130)
      (0.026412 -0.500000 -0.017367)
      (0.031682 -0.500000 -0.018436)
      (0.037397 -0.500000 -0.019341)
      (0.043551 -0.500000 -0.020085)
      (0.050134 -0.500000 -0.020669)
      (0.057140 -0.500000 -0.021098)
      (0.064560 -0.500000 -0.021375)
      (0.072386 -0.500000 -0.021504)
      (0.080608 -0.500000 -0.021490)
      (0.089219 -0.500000 -0.021337)
        ) 
    spline 18 19 
        ( 
      (0.107566 -0.500000 -0.020633)
      (0.117284 -0.500000 -0.020094)
      (0.127351 -0.500000 -0.019436)
      (0.137758 -0.500000 -0.018667)
      (0.148494 -0.500000 -0.017793)
      (0.159550 -0.500000 -0.016820)
      (0.170915 -0.500000 -0.015754)
      (0.182579 -0.500000 -0.014604)
      (0.194531 -0.500000 -0.013375)
      (0.206760 -0.500000 -0.012077)
      (0.219257 -0.500000 -0.010716)
      (0.232009 -0.500000 -0.009299)
      (0.245006 -0.500000 -0.007836)
      (0.258238 -0.500000 -0.006334)
      (0.271692 -0.500000 -0.004800)
      (0.285359 -0.500000 -0.003244)
      (0.299225 -0.500000 -0.001673)
      (0.313281 -0.500000 -0.000095)
      (0.327514 -0.500000 0.001481)
      (0.341913 -0.500000 0.003048)
      (0.356465 -0.500000 0.004598)
      (0.371160 -0.500000 0.006124)
      (0.385983 -0.500000 0.007617)
      (0.400924 -0.500000 0.009072)
      (0.415969 -0.500000 0.010481)
      (0.431105 -0.500000 0.011837)
      (0.446321 -0.500000 0.013135)
      (0.461601 -0.500000 0.014369)
      (0.476934 -0.500000 0.015533)
      (0.492306 -0.500000 0.016623)
      (0.507702 -0.500000 0.017634)
      (0.523110 -0.500000 0.018563)
      (0.538514 -0.500000 0.019405)
      (0.553901 -0.500000 0.020159)
      (0.569256 -0.500000 0.020822)
      (0.584565 -0.500000 0.021392)
      (0.599814 -0.500000 0.021868)
      (0.614986 -0.500000 0.022250)
      (0.630068 -0.500000 0.022537)
      (0.645045 -0.500000 0.022730)
      (0.659902 -0.500000 0.022830)
      (0.674623 -0.500000 0.022838)
      (0.689194 -0.500000 0.022757)
      (0.703600 -0.500000 0.022589)
      (0.717825 -0.500000 0.022338)
      (0.731856 -0.500000 0.022006)
      (0.745676 -0.500000 0.021597)
      (0.759271 -0.500000 0.021116)
      (0.772626 -0.500000 0.020568)
      (0.785728 -0.500000 0.019956)
      (0.798561 -0.500000 0.019287)
      (0.811111 -0.500000 0.018566)
      (0.823365 -0.500000 0.017799)
      (0.835308 -0.500000 0.016990)
      (0.846927 -0.500000 0.016147)
      (0.858209 -0.500000 0.015275)
      (0.869141 -0.500000 0.014380)
      (0.879710 -0.500000 0.013469)
      (0.889903 -0.500000 0.012548)
      (0.899709 -0.500000 0.011621)
      (0.909116 -0.500000 0.010697)
      (0.918113 -0.500000 0.009780)
      (0.926688 -0.500000 0.008876)
      (0.934833 -0.500000 0.007991)
      (0.942536 -0.500000 0.007131)
      (0.949788 -0.500000 0.006300)
      (0.956581 -0.500000 0.005503)
      (0.962905 -0.500000 0.004745)
      (0.968754 -0.500000 0.004031)
      (0.974119 -0.500000 0.003365)
      (0.978994 -0.500000 0.002750)
      (0.983372 -0.500000 0.002190)
      (0.987249 -0.500000 0.001689)
      (0.990619 -0.500000 0.001248)
      (0.993478 -0.500000 0.000871)
      (0.995822 -0.500000 0.000560)
      (0.997648 -0.500000 0.000316)
      (0.998954 -0.500000 0.000141)
      (0.999739 -0.500000 0.000035)
        ) 
    arc 0 1 (-5.578728 0.500000 5.656864) 
    arc 0 9 (-5.578728 0.500000 -5.656864) 
    arc 12 13 (-5.578728 -0.500000 5.656864) 
    arc 12 21 (-5.578728 -0.500000 -5.656864) 
); 

boundary 
( 
    inlet 
    { 
        type patch; 
        faces 
        ( 
            (1 0 12 13) 
            (0 9 21 12) 
        ); 
    } 

    outlet 
    { 
        type patch; 
        faces 
        ( 
            (11 8 20 23) 
            (8 3 15 20) 
        ); 
    } 

    topAndBottom 
    { 
        type patch; 
        faces 
        ( 
            (3 2 14 15) 
            (2 1 13 14) 
            (9 10 22 21) 
            (10 11 23 22) 
        ); 
    } 

    naca4 
    { 
        type wall; 
        faces 
        ( 
            (5 4 16 17) 
            (7 5 17 19) 
            (4 6 18 16) 
            (6 7 19 18) 
        ); 
    } 
); 
 
mergePatchPairs 
( 
); 
 
// ************************************************************************* // 
