/*--------------------------------*- C++ -*----------------------------------*\ 
| =========                 |                                                 | 
| \\      /  F ield         | OpenFOAM: The Open Source CFD Toolbox           | 
|  \\    /   O peration     | Version:  2.1.0                                 | 
|   \\  /    A nd           | Web:      www.OpenFOAM.com                      | 
|    \\/     M anipulation  |                                                 | 
\*---------------------------------------------------------------------------*/ 
FoamFile                                                                        
{                                                                               
    version     2.0;                                                            
    format      ascii;                                                          
    class       dictionary;                                                     
    object      blockMeshDict;                                                  
}                                                                               
// * * * * * * * * * * * * * * * * * * * * * * * * * * * * * * * * * * * * * // 

convertToMeters 1.000000; 

vertices 
( 
      (-7.942435 0.500000 0.000000)
      (0.057565 0.500000 8.000000)
      (1.000000 0.500000 8.000000)
      (16.000000 0.500000 8.000000)
      (0.000000 0.500000 0.000000)
      (0.057565 0.500000 0.042881)
      (0.062962 0.500000 -0.033820)
      (1.000000 0.500000 0.000000)
      (16.000000 0.500000 0.000000)
      (0.062962 0.500000 -8.000000)
      (1.000000 0.500000 -8.000000)
      (16.000000 0.500000 -8.000000)
      (-7.942435 -0.500000 0.000000)
      (0.057565 -0.500000 8.000000)
      (1.000000 -0.500000 8.000000)
      (16.000000 -0.500000 8.000000)
      (0.000000 -0.500000 0.000000)
      (0.057565 -0.500000 0.042881)
      (0.062962 -0.500000 -0.033820)
      (1.000000 -0.500000 0.000000)
      (16.000000 -0.500000 0.000000)
      (0.062962 -0.500000 -8.000000)
      (1.000000 -0.500000 -8.000000)
      (16.000000 -0.500000 -8.000000)
); 

blocks 
( 
    hex(4 7 2 0 16 19 14 12)      (75 300 1)  edgeGrading (1 0.2 0.2 1 50 50 50 1 1 1 1)
    hex (7 8 3 2 19 20 15 14)     (150 300 1) simpleGrading (10 50 1) 
    hex (16 19 22 12 4 7 10 0)     (75 300 1) edgeGrading (1 0.2 0.2 1 50 50 50 50 1 1 1 1) 
    hex (19 20 23 22 7 8 11 10)   (150 300 1) simpleGrading (10 50 1) 
); 

edges 
( 
    spline 4 7
        ( 
       (0.005703 0.500000 0.014683)
       (0.025045 0.500000 0.029153)
     (0.102424 0.500000 0.055169)
     (0.158409 0.500000 0.065287)
     (0.223963 0.500000 0.072615)
     (0.297226 0.500000 0.076749)
     (0.376105 0.500000 0.077554)
     (0.458347 0.500000 0.075158)
     (0.541622 0.500000 0.069910)
     (0.623600 0.500000 0.062320)
     (0.702014 0.500000 0.053006)
     (0.774729 0.500000 0.042661)
     (0.839791 0.500000 0.032023)
     (0.895476 0.500000 0.021861)
     (0.940330 0.500000 0.012939)
     (0.973202 0.500000 0.005967)
     (0.993259 0.500000 0.001525)
        ) 
    spline 4 7
        ( 
        (0.007935 0.500000 -0.013600)
        (0.029138 0.500000 -0.024935)
      (0.108437 0.500000 -0.040079)
      (0.164311 0.500000 -0.043635)
      (0.229091 0.500000 -0.044581)
      (0.301081 0.500000 -0.043203)
      (0.378413 0.500000 -0.039964)
      (0.459077 0.500000 -0.035431)
      (0.540961 0.500000 -0.030182)
      (0.621890 0.500000 -0.024730)
      (0.699685 0.500000 -0.019461)
      (0.772223 0.500000 -0.014627)
      (0.837494 0.500000 -0.010371)
      (0.893668 0.500000 -0.006770)
      (0.939147 0.500000 -0.003879)
      (0.972618 0.500000 -0.001750)
      (0.993104 0.500000 -0.000442)
        ) 
    spline 16 19
        ( 
       (0.005703 -0.500000 0.014683)
       (0.025045 -0.500000 0.029153)
     (0.102424 -0.500000 0.055169)
     (0.158409 -0.500000 0.065287)
     (0.223963 -0.500000 0.072615)
     (0.297226 -0.500000 0.076749)
     (0.376105 -0.500000 0.077554)
     (0.458347 -0.500000 0.075158)
     (0.541622 -0.500000 0.069910)
     (0.623600 -0.500000 0.062320)
     (0.702014 -0.500000 0.053006)
     (0.774729 -0.500000 0.042661)
     (0.839791 -0.500000 0.032023)
     (0.895476 -0.500000 0.021861)
     (0.940330 -0.500000 0.012939)
     (0.973202 -0.500000 0.005967)
     (0.993259 -0.500000 0.001525)
        ) 
    spline 16 19 
        ( 
      (0.007935 -0.500000 -0.013600)
      (0.029138 -0.500000 -0.024935)
      (0.108437 -0.500000 -0.040079)
      (0.164311 -0.500000 -0.043635)
      (0.229091 -0.500000 -0.044581)
      (0.301081 -0.500000 -0.043203)
      (0.378413 -0.500000 -0.039964)
      (0.459077 -0.500000 -0.035431)
      (0.540961 -0.500000 -0.030182)
      (0.621890 -0.500000 -0.024730)
      (0.699685 -0.500000 -0.019461)
      (0.772223 -0.500000 -0.014627)
      (0.837494 -0.500000 -0.010371)
      (0.893668 -0.500000 -0.006770)
      (0.939147 -0.500000 -0.003879)
      (0.972618 -0.500000 -0.001750)
      (0.993104 -0.500000 -0.000442)
        ) 
    arc 0 2 (-5.599279 0.500000 5.656864) 
    arc 0 10 (-5.599279 0.500000 -5.656864) 
    arc 12 13 (-5.599279 -0.500000 5.656864) 
    arc 12 21 (-5.599279 -0.500000 -5.656864) 
); 


 
mergePatchPairs 
( 
); 
 
// ************************************************************************* // 
