/*--------------------------------*- C++ -*----------------------------------*\
| =========                 |                                                 |
| \\      /  F ield         | OpenFOAM: The Open Source CFD Toolbox           |
|  \\    /   O peration     | Version:  2.1.1                                 |
|   \\  /    A nd           | Web:      www.OpenFOAM.org                      |
|    \\/     M anipulation  |                                                 |
\*---------------------------------------------------------------------------*/
FoamFile
{
    version     2.0;
    format      ascii;
    class       polyBoundaryMesh;
    location    "constant/polyMesh";
    object      boundary;
}
// * * * * * * * * * * * * * * * * * * * * * * * * * * * * * * * * * * * * * //

5
(
    inlet
    {
        type            patch;
        nFaces          18;
        startFace       103640;
    }
    outlet
    {
        type            patch;
        nFaces          400;
        startFace       103658;
    }
    topAndBottom
    {
        type            patch;
        nFaces          242;
        startFace       104058;
    }
    naca4
    {
        type            wall;
        nFaces          60;
        startFace       104300;
    }
    defaultFaces
    {
        type            empty;
        nFaces          104000;
        startFace       104360;
    }
)

// ************************************************************************* //
