/*--------------------------------*- C++ -*----------------------------------*\
| =========                 |                                                 |
| \\      /  F ield         | OpenFOAM: The Open Source CFD Toolbox           |
|  \\    /   O peration     | Version:  2.1.1                                 |
|   \\  /    A nd           | Web:      www.OpenFOAM.org                      |
|    \\/     M anipulation  |                                                 |
\*---------------------------------------------------------------------------*/
FoamFile
{
    version     2.0;
    format      ascii;
    class       polyBoundaryMesh;
    location    "constant/polyMesh";
    object      boundary;
}
// * * * * * * * * * * * * * * * * * * * * * * * * * * * * * * * * * * * * * //

5
(
    inlet
    {
        type            patch;
        nFaces          100;
        startFace       63620;
    }
    outlet
    {
        type            patch;
        nFaces          160;
        startFace       63720;
    }
    topAndBottom
    {
        type            patch;
        nFaces          300;
        startFace       63880;
    }
    naca4
    {
        type            wall;
        nFaces          200;
        startFace       64180;
    }
    defaultFaces
    {
        type            empty;
        nFaces          64000;
        startFace       64380;
    }
)

// ************************************************************************* //
