/*--------------------------------*- C++ -*----------------------------------*\
| =========                 |                                                 |
| \\      /  F ield         | OpenFOAM: The Open Source CFD Toolbox           |
|  \\    /   O peration     | Version:  2.1.1                                 |
|   \\  /    A nd           | Web:      www.OpenFOAM.org                      |
|    \\/     M anipulation  |                                                 |
\*---------------------------------------------------------------------------*/
FoamFile
{
    version     2.0;
    format      ascii;
    class       polyBoundaryMesh;
    location    "constant/polyMesh";
    object      boundary;
}
// * * * * * * * * * * * * * * * * * * * * * * * * * * * * * * * * * * * * * //

5
(
    inlet
    {
        type            patch;
        nFaces          60;
        startFace       15680;
    }
    outlet
    {
        type            patch;
        nFaces          40;
        startFace       15740;
    }
    topAndBottom
    {
        type            patch;
        nFaces          340;
        startFace       15780;
    }
    naca4
    {
        type            wall;
        nFaces          200;
        startFace       16120;
    }
    defaultFaces
    {
        type            empty;
        nFaces          16000;
        startFace       16320;
    }
)

// ************************************************************************* //
