/*--------------------------------*- C++ -*----------------------------------*\ 
| =========                 |                                                 | 
| \\      /  F ield         | OpenFOAM: The Open Source CFD Toolbox           | 
|  \\    /   O peration     | Version:  2.1.0                                 | 
|   \\  /    A nd           | Web:      www.OpenFOAM.com                      | 
|    \\/     M anipulation  |                                                 | 
\*---------------------------------------------------------------------------*/ 
FoamFile                                                                        
{                                                                               
    version     2.0;                                                            
    format      ascii;                                                          
    class       dictionary;                                                     
    object      blockMeshDict;                                                  
}                                                                               
// * * * * * * * * * * * * * * * * * * * * * * * * * * * * * * * * * * * * * // 

convertToMeters 1.000000; 

vertices 
( 
      (-7.904146 0.500000 0.000000)
      (0.095854 0.500000 8.000000)
      (0.993673 0.500000 8.000000)
      (16.000000 0.500000 8.000000)
      (0.000000 0.500000 0.000000)
      (0.095854 0.500000 0.034315)
      (0.106268 0.500000 -0.036711)
      (0.993673 0.500000 0.000828)
      (16.000000 0.500000 0.000828)
      (0.106268 0.500000 -8.000000)
      (0.993673 0.500000 -8.000000)
      (16.000000 0.500000 -8.000000)
      (-7.904146 -0.500000 0.000000)
      (0.095854 -0.500000 8.000000)
      (0.993673 -0.500000 8.000000)
      (16.000000 -0.500000 8.000000)
      (0.000000 -0.500000 0.000000)
      (0.095854 -0.500000 0.034315)
      (0.106268 -0.500000 -0.036711)
      (0.993673 -0.500000 0.000828)
      (16.000000 -0.500000 0.000828)
      (0.106268 -0.500000 -8.000000)
      (0.993673 -0.500000 -8.000000)
      (16.000000 -0.500000 -8.000000)
); 

blocks 
( 
    hex (4 5 1 0 16 17 13 12)     (40 200 1) edgeGrading (1 0.200000 0.200000 1 5.000000 5.000000 5.000000 5.000000 1 1 1 1) 
    hex (5 7 2 1 17 19 14 13)     (70 200 1) simpleGrading (1 5.000000 1) 
    hex (7 8 3 2 19 20 15 14)     (30 200 1) simpleGrading (15.000000 5.000000 1) 
    hex (16 18 21 12 4 6 9 0)     (40 200 1) edgeGrading (1 0.200000 0.200000 1 5.000000 5.000000 5.000000 5.000000 1 1 1 1) 
    hex (18 19 22 21 6 7 10 9)    (70 200 1) simpleGrading (1 5.000000 1) 
    hex (19 20 23 22 7 8 11 10)   (30 200 1) simpleGrading (15.000000 5.000000 1) 
); 

edges 
( 
    spline 4 5 
        ( 
      (0.001329 0.500000 0.000133)
      (0.001354 0.500000 0.000571)
      (0.001425 0.500000 0.001006)
      (0.001541 0.500000 0.001438)
      (0.001703 0.500000 0.001867)
      (0.001910 0.500000 0.002293)
      (0.002163 0.500000 0.002716)
      (0.002462 0.500000 0.003136)
      (0.002858 0.500000 0.003579)
      (0.003442 0.500000 0.004091)
      (0.004217 0.500000 0.004671)
      (0.005183 0.500000 0.005321)
      (0.006339 0.500000 0.006040)
      (0.007685 0.500000 0.006829)
      (0.009222 0.500000 0.007686)
      (0.010950 0.500000 0.008613)
      (0.012868 0.500000 0.009609)
      (0.014976 0.500000 0.010674)
      (0.017275 0.500000 0.011809)
      (0.019764 0.500000 0.013013)
      (0.022444 0.500000 0.014286)
      (0.025314 0.500000 0.015628)
      (0.028375 0.500000 0.017039)
      (0.031661 0.500000 0.018509)
      (0.035350 0.500000 0.019980)
      (0.039469 0.500000 0.021444)
      (0.044017 0.500000 0.022902)
      (0.048995 0.500000 0.024352)
      (0.054401 0.500000 0.025796)
      (0.060237 0.500000 0.027233)
      (0.066502 0.500000 0.028663)
      (0.073196 0.500000 0.030086)
      (0.080319 0.500000 0.031502)
      (0.087872 0.500000 0.032912)
       ) 
    spline 5 7 
        ( 
     (0.104265 0.500000 0.035711)
     (0.113105 0.500000 0.037100)
     (0.122374 0.500000 0.038482)
     (0.132079 0.500000 0.039855)
     (0.142370 0.500000 0.041154)
     (0.153313 0.500000 0.042350)
     (0.164909 0.500000 0.043445)
     (0.177158 0.500000 0.044436)
     (0.190059 0.500000 0.045326)
     (0.203612 0.500000 0.046113)
     (0.217818 0.500000 0.046798)
     (0.232677 0.500000 0.047380)
     (0.248188 0.500000 0.047860)
     (0.264351 0.500000 0.048238)
     (0.281167 0.500000 0.048513)
     (0.298636 0.500000 0.048686)
     (0.316756 0.500000 0.048757)
     (0.335530 0.500000 0.048726)
     (0.354956 0.500000 0.048592)
     (0.374741 0.500000 0.048361)
     (0.394492 0.500000 0.048044)
     (0.414207 0.500000 0.047638)
     (0.433886 0.500000 0.047145)
     (0.453529 0.500000 0.046563)
     (0.473136 0.500000 0.045895)
     (0.492707 0.500000 0.045138)
     (0.512242 0.500000 0.044294)
     (0.531740 0.500000 0.043361)
     (0.551203 0.500000 0.042342)
     (0.570630 0.500000 0.041234)
     (0.590021 0.500000 0.040039)
     (0.609376 0.500000 0.038756)
     (0.628694 0.500000 0.037385)
     (0.647977 0.500000 0.035926)
     (0.667113 0.500000 0.034401)
     (0.685674 0.500000 0.032895)
     (0.703616 0.500000 0.031414)
     (0.720940 0.500000 0.029960)
     (0.737645 0.500000 0.028533)
     (0.753732 0.500000 0.027132)
     (0.769200 0.500000 0.025757)
     (0.784050 0.500000 0.024409)
     (0.798281 0.500000 0.023087)
     (0.811893 0.500000 0.021792)
     (0.824887 0.500000 0.020523)
     (0.837262 0.500000 0.019281)
     (0.849019 0.500000 0.018065)
     (0.860158 0.500000 0.016875)
     (0.870677 0.500000 0.015712)
     (0.880597 0.500000 0.014575)
     (0.890190 0.500000 0.013460)
     (0.899551 0.500000 0.012365)
     (0.908678 0.500000 0.011291)
     (0.917571 0.500000 0.010237)
     (0.926232 0.500000 0.009204)
     (0.934659 0.500000 0.008191)
     (0.942852 0.500000 0.007199)
     (0.950813 0.500000 0.006228)
     (0.958539 0.500000 0.005276)
     (0.966033 0.500000 0.004346)
     (0.973293 0.500000 0.003436)
     (0.980320 0.500000 0.002546)
     (0.987113 0.500000 0.001677)
        ) 
    spline 4 6 
        ( 
      (0.001414 0.500000 -0.000752)
      (0.001526 0.500000 -0.001199)
      (0.001682 0.500000 -0.001649)
      (0.001884 0.500000 -0.002102)
      (0.002132 0.500000 -0.002558)
      (0.002425 0.500000 -0.003017)
      (0.002764 0.500000 -0.003479)
      (0.003198 0.500000 -0.003966)
      (0.003814 0.500000 -0.004515)
      (0.004614 0.500000 -0.005129)
      (0.005598 0.500000 -0.005807)
      (0.006767 0.500000 -0.006548)
      (0.008119 0.500000 -0.007353)
      (0.009655 0.500000 -0.008222)
      (0.011375 0.500000 -0.009155)
      (0.013279 0.500000 -0.010152)
      (0.015368 0.500000 -0.011212)
      (0.017640 0.500000 -0.012337)
      (0.020096 0.500000 -0.013525)
      (0.022737 0.500000 -0.014777)
      (0.025561 0.500000 -0.016093)
      (0.028569 0.500000 -0.017473)
      (0.031802 0.500000 -0.018908)
      (0.035467 0.500000 -0.020356)
      (0.039593 0.500000 -0.021811)
      (0.044182 0.500000 -0.023272)
      (0.049233 0.500000 -0.024739)
      (0.054746 0.500000 -0.026213)
      (0.060720 0.500000 -0.027693)
      (0.067157 0.500000 -0.029180)
      (0.074055 0.500000 -0.030673)
      (0.081415 0.500000 -0.032173)
      (0.089238 0.500000 -0.033679)
      (0.097522 0.500000 -0.035192)
        ) 
    spline 6 7 
        ( 
      (0.115476 0.500000 -0.038237)
      (0.125146 0.500000 -0.039769)
      (0.135286 0.500000 -0.041311)
      (0.146091 0.500000 -0.042955)
      (0.157646 0.500000 -0.044740)
      (0.169953 0.500000 -0.046666)
      (0.183010 0.500000 -0.048734)
      (0.196817 0.500000 -0.050942)
      (0.211376 0.500000 -0.053293)
      (0.226685 0.500000 -0.055784)
      (0.242745 0.500000 -0.058417)
      (0.259555 0.500000 -0.061191)
      (0.277116 0.500000 -0.064107)
      (0.295428 0.500000 -0.067163)
      (0.314491 0.500000 -0.070361)
      (0.334304 0.500000 -0.073701)
      (0.354868 0.500000 -0.077181)
      (0.376183 0.500000 -0.080803)
      (0.397803 0.500000 -0.084253)
      (0.419129 0.500000 -0.087111)
      (0.440160 0.500000 -0.089374)
      (0.460895 0.500000 -0.091043)
      (0.481333 0.500000 -0.092118)
      (0.501476 0.500000 -0.092598)
      (0.521322 0.500000 -0.092484)
      (0.540873 0.500000 -0.091775)
      (0.560128 0.500000 -0.090472)
      (0.579086 0.500000 -0.088575)
      (0.597749 0.500000 -0.086083)
      (0.616116 0.500000 -0.082997)
      (0.634186 0.500000 -0.079316)
      (0.651961 0.500000 -0.075041)
      (0.669440 0.500000 -0.070172)
      (0.686582 0.500000 -0.064871)
      (0.703233 0.500000 -0.059771)
      (0.719376 0.500000 -0.054936)
      (0.735012 0.500000 -0.050365)
      (0.750140 0.500000 -0.046059)
      (0.764760 0.500000 -0.042017)
      (0.778873 0.500000 -0.038240)
      (0.792478 0.500000 -0.034728)
      (0.805575 0.500000 -0.031480)
      (0.818165 0.500000 -0.028496)
      (0.830248 0.500000 -0.025778)
      (0.841823 0.500000 -0.023323)
      (0.852890 0.500000 -0.021134)
      (0.863450 0.500000 -0.019209)
      (0.873502 0.500000 -0.017549)
      (0.883061 0.500000 -0.016142)
      (0.892337 0.500000 -0.014825)
      (0.901401 0.500000 -0.013542)
      (0.910255 0.500000 -0.012294)
      (0.918897 0.500000 -0.011080)
      (0.927327 0.500000 -0.009901)
      (0.935546 0.500000 -0.008756)
      (0.943553 0.500000 -0.007645)
      (0.951349 0.500000 -0.006569)
      (0.958934 0.500000 -0.005527)
      (0.966307 0.500000 -0.004520)
      (0.973468 0.500000 -0.003547)
      (0.980418 0.500000 -0.002609)
      (0.987157 0.500000 -0.001705)
      (0.993684 0.500000 -0.000835)
        ) 
    spline 16 17 
        ( 
      (0.001329 -0.500000 0.000133)
      (0.001354 -0.500000 0.000571)
      (0.001425 -0.500000 0.001006)
      (0.001541 -0.500000 0.001438)
      (0.001703 -0.500000 0.001867)
      (0.001910 -0.500000 0.002293)
      (0.002163 -0.500000 0.002716)
      (0.002462 -0.500000 0.003136)
      (0.002858 -0.500000 0.003579)
      (0.003442 -0.500000 0.004091)
      (0.004217 -0.500000 0.004671)
      (0.005183 -0.500000 0.005321)
      (0.006339 -0.500000 0.006040)
      (0.007685 -0.500000 0.006829)
      (0.009222 -0.500000 0.007686)
      (0.010950 -0.500000 0.008613)
      (0.012868 -0.500000 0.009609)
      (0.014976 -0.500000 0.010674)
      (0.017275 -0.500000 0.011809)
      (0.019764 -0.500000 0.013013)
      (0.022444 -0.500000 0.014286)
      (0.025314 -0.500000 0.015628)
      (0.028375 -0.500000 0.017039)
      (0.031661 -0.500000 0.018509)
      (0.035350 -0.500000 0.019980)
      (0.039469 -0.500000 0.021444)
      (0.044017 -0.500000 0.022902)
      (0.048995 -0.500000 0.024352)
      (0.054401 -0.500000 0.025796)
      (0.060237 -0.500000 0.027233)
      (0.066502 -0.500000 0.028663)
      (0.073196 -0.500000 0.030086)
      (0.080319 -0.500000 0.031502)
      (0.087872 -0.500000 0.032912)
        ) 
    spline 17 19 
        ( 
     (0.104265 -0.500000 0.035711)
     (0.113105 -0.500000 0.037100)
     (0.122374 -0.500000 0.038482)
     (0.132079 -0.500000 0.039855)
     (0.142370 -0.500000 0.041154)
     (0.153313 -0.500000 0.042350)
     (0.164909 -0.500000 0.043445)
     (0.177158 -0.500000 0.044436)
     (0.190059 -0.500000 0.045326)
     (0.203612 -0.500000 0.046113)
     (0.217818 -0.500000 0.046798)
     (0.232677 -0.500000 0.047380)
     (0.248188 -0.500000 0.047860)
     (0.264351 -0.500000 0.048238)
     (0.281167 -0.500000 0.048513)
     (0.298636 -0.500000 0.048686)
     (0.316756 -0.500000 0.048757)
     (0.335530 -0.500000 0.048726)
     (0.354956 -0.500000 0.048592)
     (0.374741 -0.500000 0.048361)
     (0.394492 -0.500000 0.048044)
     (0.414207 -0.500000 0.047638)
     (0.433886 -0.500000 0.047145)
     (0.453529 -0.500000 0.046563)
     (0.473136 -0.500000 0.045895)
     (0.492707 -0.500000 0.045138)
     (0.512242 -0.500000 0.044294)
     (0.531740 -0.500000 0.043361)
     (0.551203 -0.500000 0.042342)
     (0.570630 -0.500000 0.041234)
     (0.590021 -0.500000 0.040039)
     (0.609376 -0.500000 0.038756)
     (0.628694 -0.500000 0.037385)
     (0.647977 -0.500000 0.035926)
     (0.667113 -0.500000 0.034401)
     (0.685674 -0.500000 0.032895)
     (0.703616 -0.500000 0.031414)
     (0.720940 -0.500000 0.029960)
     (0.737645 -0.500000 0.028533)
     (0.753732 -0.500000 0.027132)
     (0.769200 -0.500000 0.025757)
     (0.784050 -0.500000 0.024409)
     (0.798281 -0.500000 0.023087)
     (0.811893 -0.500000 0.021792)
     (0.824887 -0.500000 0.020523)
     (0.837262 -0.500000 0.019281)
     (0.849019 -0.500000 0.018065)
     (0.860158 -0.500000 0.016875)
     (0.870677 -0.500000 0.015712)
     (0.880597 -0.500000 0.014575)
     (0.890190 -0.500000 0.013460)
     (0.899551 -0.500000 0.012365)
     (0.908678 -0.500000 0.011291)
     (0.917571 -0.500000 0.010237)
     (0.926232 -0.500000 0.009204)
     (0.934659 -0.500000 0.008191)
     (0.942852 -0.500000 0.007199)
     (0.950813 -0.500000 0.006228)
     (0.958539 -0.500000 0.005276)
     (0.966033 -0.500000 0.004346)
     (0.973293 -0.500000 0.003436)
     (0.980320 -0.500000 0.002546)
     (0.987113 -0.500000 0.001677)
        ) 
    spline 16 18 
        ( 
      (0.001414 -0.500000 -0.000752)
      (0.001526 -0.500000 -0.001199)
      (0.001682 -0.500000 -0.001649)
      (0.001884 -0.500000 -0.002102)
      (0.002132 -0.500000 -0.002558)
      (0.002425 -0.500000 -0.003017)
      (0.002764 -0.500000 -0.003479)
      (0.003198 -0.500000 -0.003966)
      (0.003814 -0.500000 -0.004515)
      (0.004614 -0.500000 -0.005129)
      (0.005598 -0.500000 -0.005807)
      (0.006767 -0.500000 -0.006548)
      (0.008119 -0.500000 -0.007353)
      (0.009655 -0.500000 -0.008222)
      (0.011375 -0.500000 -0.009155)
      (0.013279 -0.500000 -0.010152)
      (0.015368 -0.500000 -0.011212)
      (0.017640 -0.500000 -0.012337)
      (0.020096 -0.500000 -0.013525)
      (0.022737 -0.500000 -0.014777)
      (0.025561 -0.500000 -0.016093)
      (0.028569 -0.500000 -0.017473)
      (0.031802 -0.500000 -0.018908)
      (0.035467 -0.500000 -0.020356)
      (0.039593 -0.500000 -0.021811)
      (0.044182 -0.500000 -0.023272)
      (0.049233 -0.500000 -0.024739)
      (0.054746 -0.500000 -0.026213)
      (0.060720 -0.500000 -0.027693)
      (0.067157 -0.500000 -0.029180)
      (0.074055 -0.500000 -0.030673)
      (0.081415 -0.500000 -0.032173)
      (0.089238 -0.500000 -0.033679)
      (0.097522 -0.500000 -0.035192)
        ) 
    spline 18 19 
        ( 
      (0.115476 -0.500000 -0.038237)
      (0.125146 -0.500000 -0.039769)
      (0.135286 -0.500000 -0.041311)
      (0.146091 -0.500000 -0.042955)
      (0.157646 -0.500000 -0.044740)
      (0.169953 -0.500000 -0.046666)
      (0.183010 -0.500000 -0.048734)
      (0.196817 -0.500000 -0.050942)
      (0.211376 -0.500000 -0.053293)
      (0.226685 -0.500000 -0.055784)
      (0.242745 -0.500000 -0.058417)
      (0.259555 -0.500000 -0.061191)
      (0.277116 -0.500000 -0.064107)
      (0.295428 -0.500000 -0.067163)
      (0.314491 -0.500000 -0.070361)
      (0.334304 -0.500000 -0.073701)
      (0.354868 -0.500000 -0.077181)
      (0.376183 -0.500000 -0.080803)
      (0.397803 -0.500000 -0.084253)
      (0.419129 -0.500000 -0.087111)
      (0.440160 -0.500000 -0.089374)
      (0.460895 -0.500000 -0.091043)
      (0.481333 -0.500000 -0.092118)
      (0.501476 -0.500000 -0.092598)
      (0.521322 -0.500000 -0.092484)
      (0.540873 -0.500000 -0.091775)
      (0.560128 -0.500000 -0.090472)
      (0.579086 -0.500000 -0.088575)
      (0.597749 -0.500000 -0.086083)
      (0.616116 -0.500000 -0.082997)
      (0.634186 -0.500000 -0.079316)
      (0.651961 -0.500000 -0.075041)
      (0.669440 -0.500000 -0.070172)
      (0.686582 -0.500000 -0.064871)
      (0.703233 -0.500000 -0.059771)
      (0.719376 -0.500000 -0.054936)
      (0.735012 -0.500000 -0.050365)
      (0.750140 -0.500000 -0.046059)
      (0.764760 -0.500000 -0.042017)
      (0.778873 -0.500000 -0.038240)
      (0.792478 -0.500000 -0.034728)
      (0.805575 -0.500000 -0.031480)
      (0.818165 -0.500000 -0.028496)
      (0.830248 -0.500000 -0.025778)
      (0.841823 -0.500000 -0.023323)
      (0.852890 -0.500000 -0.021134)
      (0.863450 -0.500000 -0.019209)
      (0.873502 -0.500000 -0.017549)
      (0.883061 -0.500000 -0.016142)
      (0.892337 -0.500000 -0.014825)
      (0.901401 -0.500000 -0.013542)
      (0.910255 -0.500000 -0.012294)
      (0.918897 -0.500000 -0.011080)
      (0.927327 -0.500000 -0.009901)
      (0.935546 -0.500000 -0.008756)
      (0.943553 -0.500000 -0.007645)
      (0.951349 -0.500000 -0.006569)
      (0.958934 -0.500000 -0.005527)
      (0.966307 -0.500000 -0.004520)
      (0.973468 -0.500000 -0.003547)
      (0.980418 -0.500000 -0.002609)
      (0.987157 -0.500000 -0.001705)
      (0.993684 -0.500000 -0.000835)
        ) 
    arc 0 1 (-5.560990 0.500000 5.656864) 
    arc 0 9 (-5.560990 0.500000 -5.656864) 
    arc 12 13 (-5.560990 -0.500000 5.656864) 
    arc 12 21 (-5.560990 -0.500000 -5.656864) 
); 

boundary 
( 
    inlet 
    { 
        type patch; 
        faces 
        ( 
            (1 0 12 13) 
            (0 9 21 12) 
        ); 
    } 

    outlet 
    { 
        type patch; 
        faces 
        ( 
            (11 8 20 23) 
            (8 3 15 20) 
        ); 
    } 

    topAndBottom 
    { 
        type patch; 
        faces 
        ( 
            (3 2 14 15) 
            (2 1 13 14) 
            (9 10 22 21) 
            (10 11 23 22) 
        ); 
    } 

    naca4 
    { 
        type wall; 
        faces 
        ( 
            (5 4 16 17) 
            (7 5 17 19) 
            (4 6 18 16) 
            (6 7 19 18) 
        ); 
    } 
); 
 
mergePatchPairs 
( 
); 
 
// ************************************************************************* // 
