/*--------------------------------*- C++ -*----------------------------------*\ 
| =========                 |                                                 | 
| \\      /  F ield         | OpenFOAM: The Open Source CFD Toolbox           | 
|  \\    /   O peration     | Version:  2.1.0                                 | 
|   \\  /    A nd           | Web:      www.OpenFOAM.com                      | 
|    \\/     M anipulation  |                                                 | 
\*---------------------------------------------------------------------------*/ 
FoamFile                                                                        
{                                                                               
    version     2.0;                                                            
    format      ascii;                                                          
    class       dictionary;                                                     
    object      blockMeshDict;                                                  
}                                                                               
// * * * * * * * * * * * * * * * * * * * * * * * * * * * * * * * * * * * * * // 

convertToMeters 1.000000; 

vertices 
( 
      (-7.721740 0.500000 0.000000)
      (0.278260 0.500000 8.000000)
      (1.000000 0.500000 8.000000)
      (16.000000 0.500000 8.000000)
      (0.000000 0.500000 0.000000)
      (0.278260 0.500000 0.079708)
      (0.277676 0.500000 -0.040087)
      (1.000000 0.500000 0.000000)
      (16.000000 0.500000 0.000000)
      (0.277676 0.500000 -8.000000)
      (1.000000 0.500000 -8.000000)
      (16.000000 0.500000 -8.000000)
      (-7.721740 -0.500000 0.000000)
      (0.278260 -0.500000 8.000000)
      (1.000000 -0.500000 8.000000)
      (16.000000 -0.500000 8.000000)
      (0.000000 -0.500000 0.000000)
      (0.278260 -0.500000 0.079708)
      (0.277676 -0.500000 -0.040087)
      (1.000000 -0.500000 0.000000)
      (16.000000 -0.500000 0.000000)
      (0.277676 -0.500000 -8.000000)
      (1.000000 -0.500000 -8.000000)
      (16.000000 -0.500000 -8.000000)
); 

blocks 
( 
    hex (4 5 1 0 16 17 13 12)     (40 200 1) edgeGrading (1 0.200000 0.200000 1 5.000000 5.000000 5.000000 5.000000 1 1 1 1) 
    hex (5 7 2 1 17 19 14 13)     (70 200 1) simpleGrading (1 5.000000 1) 
    hex (7 8 3 2 19 20 15 14)     (30 200 1) simpleGrading (15.000000 5.000000 1) 
    hex (16 18 21 12 4 6 9 0)     (40 200 1) edgeGrading (1 0.200000 0.200000 1 5.000000 5.000000 5.000000 5.000000 1 1 1 1) 
    hex (18 19 22 21 6 7 10 9)    (70 200 1) simpleGrading (1 5.000000 1) 
    hex (19 20 23 22 7 8 11 10)   (30 200 1) simpleGrading (15.000000 5.000000 1) 
); 

edges 
( 
    spline 4 5 
        ( 
      (-0.000298 0.500000 0.002803)
      (-0.000082 0.500000 0.005669)
      (0.000653 0.500000 0.008597)
      (0.001909 0.500000 0.011582)
      (0.003688 0.500000 0.014622)
      (0.005991 0.500000 0.017711)
      (0.008820 0.500000 0.020844)
      (0.012174 0.500000 0.024012)
      (0.016054 0.500000 0.027207)
      (0.020459 0.500000 0.030420)
      (0.025387 0.500000 0.033641)
      (0.030835 0.500000 0.036858)
      (0.036801 0.500000 0.040060)
      (0.043281 0.500000 0.043233)
      (0.050269 0.500000 0.046363)
      (0.057761 0.500000 0.049437)
      (0.065751 0.500000 0.052440)
      (0.074231 0.500000 0.055357)
      (0.083194 0.500000 0.058171)
      (0.092630 0.500000 0.060868)
      (0.102531 0.500000 0.063430)
      (0.112886 0.500000 0.065843)
      (0.123684 0.500000 0.068089)
      (0.134912 0.500000 0.070154)
      (0.146559 0.500000 0.072020)
      (0.158609 0.500000 0.073673)
      (0.171049 0.500000 0.075098)
      (0.183863 0.500000 0.076280)
      (0.197036 0.500000 0.077205)
      (0.210009 0.500000 0.077909)
      (0.223125 0.500000 0.078496)
      (0.236522 0.500000 0.078970)
      (0.250187 0.500000 0.079329)
      (0.264104 0.500000 0.079575)
       ) 
    spline 5 7 
        ( 
     (0.292640 0.500000 0.079728)
     (0.307229 0.500000 0.079637)
     (0.322013 0.500000 0.079437)
     (0.336977 0.500000 0.079129)
     (0.352104 0.500000 0.078715)
     (0.367380 0.500000 0.078197)
     (0.382789 0.500000 0.077579)
     (0.398316 0.500000 0.076863)
     (0.413943 0.500000 0.076051)
     (0.429656 0.500000 0.075148)
     (0.445439 0.500000 0.074156)
     (0.461275 0.500000 0.073079)
     (0.477148 0.500000 0.071921)
     (0.493043 0.500000 0.070685)
     (0.508942 0.500000 0.069376)
     (0.524830 0.500000 0.067997)
     (0.540692 0.500000 0.066551)
     (0.556509 0.500000 0.065045)
     (0.572268 0.500000 0.063480)
     (0.587951 0.500000 0.061862)
     (0.603544 0.500000 0.060195)
     (0.619029 0.500000 0.058483)
     (0.634392 0.500000 0.056729)
     (0.649618 0.500000 0.054939)
     (0.664690 0.500000 0.053117)
     (0.679594 0.500000 0.051266)
     (0.694315 0.500000 0.049391)
     (0.708838 0.500000 0.047496)
     (0.723148 0.500000 0.045585)
     (0.737232 0.500000 0.043662)
     (0.751074 0.500000 0.041733)
     (0.764662 0.500000 0.039800)
     (0.777982 0.500000 0.037867)
     (0.791020 0.500000 0.035940)
     (0.803763 0.500000 0.034023)
     (0.816199 0.500000 0.032119)
     (0.828316 0.500000 0.030232)
     (0.840101 0.500000 0.028368)
     (0.851543 0.500000 0.026529)
     (0.862630 0.500000 0.024721)
     (0.873352 0.500000 0.022947)
     (0.883698 0.500000 0.021211)
     (0.893658 0.500000 0.019518)
     (0.903221 0.500000 0.017871)
     (0.912379 0.500000 0.016275)
     (0.921122 0.500000 0.014733)
     (0.929442 0.500000 0.013249)
     (0.937331 0.500000 0.011828)
     (0.944782 0.500000 0.010472)
     (0.951785 0.500000 0.009185)
     (0.958336 0.500000 0.007971)
     (0.964428 0.500000 0.006832)
     (0.970054 0.500000 0.005773)
     (0.975209 0.500000 0.004795)
     (0.979889 0.500000 0.003902)
     (0.984088 0.500000 0.003096)
     (0.987803 0.500000 0.002379)
     (0.991029 0.500000 0.001753)
     (0.993765 0.500000 0.001221)
     (0.996007 0.500000 0.000783)
     (0.997753 0.500000 0.000441)
     (0.999001 0.500000 0.000196)
     (0.999750 0.500000 0.000049)
        ) 
    spline 4 6 
        ( 
      (0.000802 0.500000 -0.002703)
      (0.002095 0.500000 -0.005268)
      (0.003875 0.500000 -0.007696)
      (0.006136 0.500000 -0.009989)
      (0.008874 0.500000 -0.012149)
      (0.012081 0.500000 -0.014179)
      (0.015751 0.500000 -0.016080)
      (0.019877 0.500000 -0.017858)
      (0.024453 0.500000 -0.019516)
      (0.029470 0.500000 -0.021058)
      (0.034921 0.500000 -0.022489)
      (0.040797 0.500000 -0.023815)
      (0.047091 0.500000 -0.025041)
      (0.053793 0.500000 -0.026174)
      (0.060896 0.500000 -0.027220)
      (0.068390 0.500000 -0.028186)
      (0.076266 0.500000 -0.029079)
      (0.084516 0.500000 -0.029907)
      (0.093130 0.500000 -0.030679)
      (0.102100 0.500000 -0.031401)
      (0.111417 0.500000 -0.032084)
      (0.121070 0.500000 -0.032735)
      (0.131053 0.500000 -0.033365)
      (0.141355 0.500000 -0.033981)
      (0.151968 0.500000 -0.034594)
      (0.162883 0.500000 -0.035214)
      (0.174092 0.500000 -0.035850)
      (0.185586 0.500000 -0.036513)
      (0.197356 0.500000 -0.037212)
      (0.209936 0.500000 -0.037915)
      (0.222957 0.500000 -0.038529)
      (0.236254 0.500000 -0.039052)
      (0.249815 0.500000 -0.039485)
      (0.263627 0.500000 -0.039830)
        ) 
    spline 6 7 
        ( 
      (0.291948 0.500000 -0.040260)
      (0.306428 0.500000 -0.040350)
      (0.321103 0.500000 -0.040360)
      (0.335958 0.500000 -0.040293)
      (0.350978 0.500000 -0.040150)
      (0.366149 0.500000 -0.039935)
      (0.381455 0.500000 -0.039652)
      (0.396881 0.500000 -0.039303)
      (0.412412 0.500000 -0.038891)
      (0.428032 0.500000 -0.038421)
      (0.443726 0.500000 -0.037895)
      (0.459478 0.500000 -0.037317)
      (0.475273 0.500000 -0.036689)
      (0.491095 0.500000 -0.036017)
      (0.506927 0.500000 -0.035302)
      (0.522755 0.500000 -0.034549)
      (0.538562 0.500000 -0.033761)
      (0.554333 0.500000 -0.032940)
      (0.570051 0.500000 -0.032090)
      (0.585701 0.500000 -0.031214)
      (0.601267 0.500000 -0.030316)
      (0.616734 0.500000 -0.029397)
      (0.632086 0.500000 -0.028460)
      (0.647307 0.500000 -0.027509)
      (0.662382 0.500000 -0.026546)
      (0.677296 0.500000 -0.025573)
      (0.692034 0.500000 -0.024592)
      (0.706582 0.500000 -0.023606)
      (0.720923 0.500000 -0.022617)
      (0.735044 0.500000 -0.021628)
      (0.748930 0.500000 -0.020639)
      (0.762568 0.500000 -0.019653)
      (0.775943 0.500000 -0.018673)
      (0.789041 0.500000 -0.017699)
      (0.801851 0.500000 -0.016734)
      (0.814357 0.500000 -0.015779)
      (0.826549 0.500000 -0.014837)
      (0.838412 0.500000 -0.013908)
      (0.849936 0.500000 -0.012996)
      (0.861107 0.500000 -0.012100)
      (0.871916 0.500000 -0.011224)
      (0.882350 0.500000 -0.010369)
      (0.892399 0.500000 -0.009536)
      (0.902053 0.500000 -0.008727)
      (0.911301 0.500000 -0.007945)
      (0.920135 0.500000 -0.007190)
      (0.928544 0.500000 -0.006464)
      (0.936521 0.500000 -0.005769)
      (0.944057 0.500000 -0.005107)
      (0.951144 0.500000 -0.004479)
      (0.957775 0.500000 -0.003886)
      (0.963942 0.500000 -0.003331)
      (0.969641 0.500000 -0.002814)
      (0.974864 0.500000 -0.002338)
      (0.979606 0.500000 -0.001902)
      (0.983862 0.500000 -0.001509)
      (0.987629 0.500000 -0.001160)
      (0.990901 0.500000 -0.000855)
      (0.993675 0.500000 -0.000595)
      (0.995949 0.500000 -0.000382)
      (0.997720 0.500000 -0.000215)
      (0.998986 0.500000 -0.000096)
      (0.999747 0.500000 -0.000024)
        ) 
    spline 16 17 
        ( 
      (-0.000298 -0.500000 0.002803)
      (-0.000082 -0.500000 0.005669)
      (0.000653 -0.500000 0.008597)
      (0.001909 -0.500000 0.011582)
      (0.003688 -0.500000 0.014622)
      (0.005991 -0.500000 0.017711)
      (0.008820 -0.500000 0.020844)
      (0.012174 -0.500000 0.024012)
      (0.016054 -0.500000 0.027207)
      (0.020459 -0.500000 0.030420)
      (0.025387 -0.500000 0.033641)
      (0.030835 -0.500000 0.036858)
      (0.036801 -0.500000 0.040060)
      (0.043281 -0.500000 0.043233)
      (0.050269 -0.500000 0.046363)
      (0.057761 -0.500000 0.049437)
      (0.065751 -0.500000 0.052440)
      (0.074231 -0.500000 0.055357)
      (0.083194 -0.500000 0.058171)
      (0.092630 -0.500000 0.060868)
      (0.102531 -0.500000 0.063430)
      (0.112886 -0.500000 0.065843)
      (0.123684 -0.500000 0.068089)
      (0.134912 -0.500000 0.070154)
      (0.146559 -0.500000 0.072020)
      (0.158609 -0.500000 0.073673)
      (0.171049 -0.500000 0.075098)
      (0.183863 -0.500000 0.076280)
      (0.197036 -0.500000 0.077205)
      (0.210009 -0.500000 0.077909)
      (0.223125 -0.500000 0.078496)
      (0.236522 -0.500000 0.078970)
      (0.250187 -0.500000 0.079329)
      (0.264104 -0.500000 0.079575)
        ) 
    spline 17 19 
        ( 
     (0.292640 -0.500000 0.079728)
     (0.307229 -0.500000 0.079637)
     (0.322013 -0.500000 0.079437)
     (0.336977 -0.500000 0.079129)
     (0.352104 -0.500000 0.078715)
     (0.367380 -0.500000 0.078197)
     (0.382789 -0.500000 0.077579)
     (0.398316 -0.500000 0.076863)
     (0.413943 -0.500000 0.076051)
     (0.429656 -0.500000 0.075148)
     (0.445439 -0.500000 0.074156)
     (0.461275 -0.500000 0.073079)
     (0.477148 -0.500000 0.071921)
     (0.493043 -0.500000 0.070685)
     (0.508942 -0.500000 0.069376)
     (0.524830 -0.500000 0.067997)
     (0.540692 -0.500000 0.066551)
     (0.556509 -0.500000 0.065045)
     (0.572268 -0.500000 0.063480)
     (0.587951 -0.500000 0.061862)
     (0.603544 -0.500000 0.060195)
     (0.619029 -0.500000 0.058483)
     (0.634392 -0.500000 0.056729)
     (0.649618 -0.500000 0.054939)
     (0.664690 -0.500000 0.053117)
     (0.679594 -0.500000 0.051266)
     (0.694315 -0.500000 0.049391)
     (0.708838 -0.500000 0.047496)
     (0.723148 -0.500000 0.045585)
     (0.737232 -0.500000 0.043662)
     (0.751074 -0.500000 0.041733)
     (0.764662 -0.500000 0.039800)
     (0.777982 -0.500000 0.037867)
     (0.791020 -0.500000 0.035940)
     (0.803763 -0.500000 0.034023)
     (0.816199 -0.500000 0.032119)
     (0.828316 -0.500000 0.030232)
     (0.840101 -0.500000 0.028368)
     (0.851543 -0.500000 0.026529)
     (0.862630 -0.500000 0.024721)
     (0.873352 -0.500000 0.022947)
     (0.883698 -0.500000 0.021211)
     (0.893658 -0.500000 0.019518)
     (0.903221 -0.500000 0.017871)
     (0.912379 -0.500000 0.016275)
     (0.921122 -0.500000 0.014733)
     (0.929442 -0.500000 0.013249)
     (0.937331 -0.500000 0.011828)
     (0.944782 -0.500000 0.010472)
     (0.951785 -0.500000 0.009185)
     (0.958336 -0.500000 0.007971)
     (0.964428 -0.500000 0.006832)
     (0.970054 -0.500000 0.005773)
     (0.975209 -0.500000 0.004795)
     (0.979889 -0.500000 0.003902)
     (0.984088 -0.500000 0.003096)
     (0.987803 -0.500000 0.002379)
     (0.991029 -0.500000 0.001753)
     (0.993765 -0.500000 0.001221)
     (0.996007 -0.500000 0.000783)
     (0.997753 -0.500000 0.000441)
     (0.999001 -0.500000 0.000196)
     (0.999750 -0.500000 0.000049)
        ) 
    spline 16 18 
        ( 
      (0.000802 -0.500000 -0.002703)
      (0.002095 -0.500000 -0.005268)
      (0.003875 -0.500000 -0.007696)
      (0.006136 -0.500000 -0.009989)
      (0.008874 -0.500000 -0.012149)
      (0.012081 -0.500000 -0.014179)
      (0.015751 -0.500000 -0.016080)
      (0.019877 -0.500000 -0.017858)
      (0.024453 -0.500000 -0.019516)
      (0.029470 -0.500000 -0.021058)
      (0.034921 -0.500000 -0.022489)
      (0.040797 -0.500000 -0.023815)
      (0.047091 -0.500000 -0.025041)
      (0.053793 -0.500000 -0.026174)
      (0.060896 -0.500000 -0.027220)
      (0.068390 -0.500000 -0.028186)
      (0.076266 -0.500000 -0.029079)
      (0.084516 -0.500000 -0.029907)
      (0.093130 -0.500000 -0.030679)
      (0.102100 -0.500000 -0.031401)
      (0.111417 -0.500000 -0.032084)
      (0.121070 -0.500000 -0.032735)
      (0.131053 -0.500000 -0.033365)
      (0.141355 -0.500000 -0.033981)
      (0.151968 -0.500000 -0.034594)
      (0.162883 -0.500000 -0.035214)
      (0.174092 -0.500000 -0.035850)
      (0.185586 -0.500000 -0.036513)
      (0.197356 -0.500000 -0.037212)
      (0.209936 -0.500000 -0.037915)
      (0.222957 -0.500000 -0.038529)
      (0.236254 -0.500000 -0.039052)
      (0.249815 -0.500000 -0.039485)
      (0.263627 -0.500000 -0.039830)
        ) 
    spline 18 19 
        ( 
      (0.291948 -0.500000 -0.040260)
      (0.306428 -0.500000 -0.040350)
      (0.321103 -0.500000 -0.040360)
      (0.335958 -0.500000 -0.040293)
      (0.350978 -0.500000 -0.040150)
      (0.366149 -0.500000 -0.039935)
      (0.381455 -0.500000 -0.039652)
      (0.396881 -0.500000 -0.039303)
      (0.412412 -0.500000 -0.038891)
      (0.428032 -0.500000 -0.038421)
      (0.443726 -0.500000 -0.037895)
      (0.459478 -0.500000 -0.037317)
      (0.475273 -0.500000 -0.036689)
      (0.491095 -0.500000 -0.036017)
      (0.506927 -0.500000 -0.035302)
      (0.522755 -0.500000 -0.034549)
      (0.538562 -0.500000 -0.033761)
      (0.554333 -0.500000 -0.032940)
      (0.570051 -0.500000 -0.032090)
      (0.585701 -0.500000 -0.031214)
      (0.601267 -0.500000 -0.030316)
      (0.616734 -0.500000 -0.029397)
      (0.632086 -0.500000 -0.028460)
      (0.647307 -0.500000 -0.027509)
      (0.662382 -0.500000 -0.026546)
      (0.677296 -0.500000 -0.025573)
      (0.692034 -0.500000 -0.024592)
      (0.706582 -0.500000 -0.023606)
      (0.720923 -0.500000 -0.022617)
      (0.735044 -0.500000 -0.021628)
      (0.748930 -0.500000 -0.020639)
      (0.762568 -0.500000 -0.019653)
      (0.775943 -0.500000 -0.018673)
      (0.789041 -0.500000 -0.017699)
      (0.801851 -0.500000 -0.016734)
      (0.814357 -0.500000 -0.015779)
      (0.826549 -0.500000 -0.014837)
      (0.838412 -0.500000 -0.013908)
      (0.849936 -0.500000 -0.012996)
      (0.861107 -0.500000 -0.012100)
      (0.871916 -0.500000 -0.011224)
      (0.882350 -0.500000 -0.010369)
      (0.892399 -0.500000 -0.009536)
      (0.902053 -0.500000 -0.008727)
      (0.911301 -0.500000 -0.007945)
      (0.920135 -0.500000 -0.007190)
      (0.928544 -0.500000 -0.006464)
      (0.936521 -0.500000 -0.005769)
      (0.944057 -0.500000 -0.005107)
      (0.951144 -0.500000 -0.004479)
      (0.957775 -0.500000 -0.003886)
      (0.963942 -0.500000 -0.003331)
      (0.969641 -0.500000 -0.002814)
      (0.974864 -0.500000 -0.002338)
      (0.979606 -0.500000 -0.001902)
      (0.983862 -0.500000 -0.001509)
      (0.987629 -0.500000 -0.001160)
      (0.990901 -0.500000 -0.000855)
      (0.993675 -0.500000 -0.000595)
      (0.995949 -0.500000 -0.000382)
      (0.997720 -0.500000 -0.000215)
      (0.998986 -0.500000 -0.000096)
      (0.999747 -0.500000 -0.000024)
        ) 
    arc 0 1 (-5.378584 0.500000 5.656864) 
    arc 0 9 (-5.378584 0.500000 -5.656864) 
    arc 12 13 (-5.378584 -0.500000 5.656864) 
    arc 12 21 (-5.378584 -0.500000 -5.656864) 
); 

boundary 
( 
    inlet 
    { 
        type patch; 
        faces 
        ( 
            (1 0 12 13) 
            (0 9 21 12) 
        ); 
    } 

    outlet 
    { 
        type patch; 
        faces 
        ( 
            (11 8 20 23) 
            (8 3 15 20) 
        ); 
    } 

    topAndBottom 
    { 
        type patch; 
        faces 
        ( 
            (3 2 14 15) 
            (2 1 13 14) 
            (9 10 22 21) 
            (10 11 23 22) 
        ); 
    } 

    naca4 
    { 
        type wall; 
        faces 
        ( 
            (5 4 16 17) 
            (7 5 17 19) 
            (4 6 18 16) 
            (6 7 19 18) 
        ); 
    } 
); 
 
mergePatchPairs 
( 
); 
 
// ************************************************************************* // 
